28
-666.31082 frame 4400   xyz file generated by terachem
   N       2.5206884125   -1.0493171366    1.5414768731
   H       2.8147766773   -1.6747946811    0.7817872770
   N       0.0228870419   -4.6821109509    3.1933439945
   N       5.2274825666    2.6506404195   -0.3425092025
   C       1.1157067786   -0.6966208695    3.3812802111
   C       2.5520614872    1.0758393163    2.5412368253
   C       1.6293027853   -1.5712698700    2.4070499188
   C       2.9153686009    0.2572995685    1.3968631753
   C       1.6494593246    0.6152294586    3.4826533776
   C       0.0860127503   -1.1136901440    4.2412806049
   C       3.0418366872    2.4084750253    2.5707596297
   C       1.2562015076   -2.9147321906    2.3917681202
   C       3.6892695018    0.7873884265    0.3900640267
   C       0.3227739105   -3.3232386573    3.3625773375
   C       4.2964582695    2.0766059870    0.4846277414
   C      -0.3116249342   -2.4298195667    4.2679865049
   C       3.8929462689    2.8832517939    1.6121047250
   H       1.4470188097    1.2244574224    4.3541513042
   H      -0.3762170875   -0.4149550500    4.9662167673
   H       2.8579812093    3.0357801936    3.4355547549
   H       1.4120444417   -3.5813255679    1.5399109364
   H       3.8822569717    0.1863864031   -0.4620462558
   H      -1.0806203824   -2.7601565772    4.9450013209
   H       4.1021996924    3.9034471414    1.5816957011
   H       0.7375429549   -5.3181707903    2.7375391097
   H      -0.5957368788   -5.0359016712    3.8792812189
   H       5.6433363802    2.0518993498   -1.0373187508
   H       5.6468530715    3.5563007022   -0.1234771663
